REMARK SMILES CNC(=O)Oc1cccc2c1OC(C)(C)O2
REMARK SMILES IDX 5 1 6 2 12 3 13 4 11 5 16 6 14 7 15 8 10 9 9 10 7 11 8 12
REMARK SMILES IDX 3 13 4 14 2 15 1 16
REMARK H PARENT 2 17
REMARK Flexibility Score: inf
ROOT
ATOM      1  O   UNL     1       3.732   0.500   0.000  1.00  0.00    -0.406 OA
ENDROOT
BRANCH   1   2
ATOM      2  C   UNL     1       3.732  -0.500   0.000  1.00  0.00     0.178 A 
ATOM      3  O   UNL     1       5.544  -0.695   0.000  1.00  0.00    -0.445 OA
ATOM      4  C   UNL     1       6.128  -1.500   0.000  1.00  0.00     0.246 C 
ATOM      5  C   UNL     1       4.598  -1.000   0.000  1.00  0.00     0.209 A 
ATOM      6  O   UNL     1       5.544  -2.305   0.000  1.00  0.00    -0.449 OA
ATOM      7  C   UNL     1       6.937  -2.088   0.000  1.00  0.00     0.106 C 
ATOM      8  C   UNL     1       6.937  -0.912   0.000  1.00  0.00     0.106 C 
ATOM      9  C   UNL     1       4.598  -2.000   0.000  1.00  0.00     0.170 A 
ATOM     10  C   UNL     1       3.732  -2.500   0.000  1.00  0.00     0.051 A 
ATOM     11  C   UNL     1       2.866  -1.000   0.000  1.00  0.00     0.051 A 
ATOM     12  C   UNL     1       2.866  -2.000   0.000  1.00  0.00     0.008 A 
ENDBRANCH   1   2
BRANCH   1  13
ATOM     13  C   UNL     1       2.866   1.000   0.000  1.00  0.00     0.412 C 
ATOM     14  O   UNL     1       2.000   0.500   0.000  1.00  0.00    -0.224 OA
ATOM     15  N   UNL     1       2.866   2.000   0.000  1.00  0.00    -0.324 N 
ATOM     16  C   UNL     1       2.000   2.500   0.000  1.00  0.00     0.146 C 
ATOM     17  H   UNL     1       3.403   2.310   0.000  1.00  0.00     0.166 HD
ENDBRANCH   1  13
TORSDOF 2
