REMARK SMILES CCOCn1c(-c2ccc(Cl)cc2)c(C#N)c(Br)c1C(F)(F)F
REMARK SMILES IDX 4 1 5 2 18 3 17 4 19 5 14 6 6 7 20 8 21 9 22 10 23 11 15 12
REMARK SMILES IDX 16 13 7 14 8 15 13 16 9 17 12 18 10 19 11 20 3 21 2 22 1 23
REMARK H PARENT
REMARK Flexibility Score: inf
ROOT
ATOM      1  C   UNL     1       3.902   0.700   0.000  1.00  0.00     0.285 C 
ENDROOT
BRANCH   1   2
ATOM      2  N   UNL     1       4.853   1.009   0.000  1.00  0.00    -0.311 N 
ATOM      3  Br  UNL     1       6.750   2.769   0.000  1.00  0.00    -0.047 Br
ATOM      4  C   UNL     1       6.162   1.960   0.000  1.00  0.00     0.066 A 
ATOM      5  C   UNL     1       5.162   1.960   0.000  1.00  0.00     0.141 A 
ATOM      6  C   UNL     1       6.471   1.009   0.000  1.00  0.00     0.093 A 
ATOM      7  C   UNL     1       5.662   0.422   0.000  1.00  0.00     0.070 A 
BRANCH   5   8
ATOM      8  C   UNL     1       4.574   2.769   0.000  1.00  0.00     0.432 C 
ATOM      9  F   UNL     1       3.987   3.578   0.000  1.00  0.00    -0.165 F 
ATOM     10  F   UNL     1       5.383   3.357   0.000  1.00  0.00    -0.165 F 
ATOM     11  F   UNL     1       3.765   2.182   0.000  1.00  0.00    -0.165 F 
ENDBRANCH   5   8
BRANCH   6  12
ATOM     12  C   UNL     1       7.422   0.700   0.000  1.00  0.00     0.103 C 
ATOM     13  N   UNL     1       8.373   0.391   0.000  1.00  0.00    -0.192 NA
ENDBRANCH   6  12
BRANCH   7  14
ATOM     14  C   UNL     1       5.662  -0.578   0.000  1.00  0.00    -0.000 A 
ATOM     15  C   UNL     1       6.528  -1.078   0.000  1.00  0.00     0.012 A 
ATOM     16  C   UNL     1       4.796  -1.078   0.000  1.00  0.00     0.012 A 
ATOM     17  C   UNL     1       6.528  -2.078   0.000  1.00  0.00     0.021 A 
ATOM     18  C   UNL     1       4.796  -2.078   0.000  1.00  0.00     0.021 A 
ATOM     19  C   UNL     1       5.662  -2.578   0.000  1.00  0.00     0.041 A 
ATOM     20  Cl  UNL     1       5.662  -3.578   0.000  1.00  0.00    -0.084 Cl
ENDBRANCH   7  14
ENDBRANCH   1   2
BRANCH   1  21
ATOM     21  O   UNL     1       3.694  -0.278   0.000  1.00  0.00    -0.361 OA
BRANCH  21  22
ATOM     22  C   UNL     1       2.743  -0.587   0.000  1.00  0.00     0.159 C 
ATOM     23  C   UNL     1       2.000   0.082   0.000  1.00  0.00     0.035 C 
ENDBRANCH  21  22
ENDBRANCH   1  21
TORSDOF 6
