REMARK SMILES CC1(C)[C@@H](C=C(Cl)Cl)[C@H]1C(=O)OCc1cccc(Oc2ccccc2)c1
REMARK SMILES IDX 13 1 12 2 10 3 11 4 9 5 4 6 2 7 1 8 3 9 5 10 7 11 6 12 8 13
REMARK SMILES IDX 14 14 26 15 15 16 18 17 16 18 17 19 19 20 20 21 21 22 25 23
REMARK SMILES IDX 22 24 24 25 23 26
REMARK H PARENT
REMARK Flexibility Score: inf
ROOT
ATOM      1  C   UNL     1       4.232   0.183   0.000  1.00  0.00     0.268 C 
ENDROOT
BRANCH   1   2
ATOM      2  O   UNL     1       4.232  -0.817   0.000  1.00  0.00    -0.461 OA
BRANCH   2   3
ATOM      3  C   UNL     1       3.366  -1.317   0.000  1.00  0.00     0.310 C 
ATOM      4  O   UNL     1       2.500  -0.817   0.000  1.00  0.00    -0.252 OA
BRANCH   3   5
ATOM      5  C   UNL     1       3.366  -2.317   0.000  1.00  0.00     0.113 C 
ATOM      6  C   UNL     1       3.866  -3.183   0.000  1.00  0.00     0.035 C 
ATOM      7  C   UNL     1       2.866  -3.183   0.000  1.00  0.00    -0.014 C 
ATOM      8  C   UNL     1       2.866  -4.183   0.000  1.00  0.00     0.012 C 
ATOM      9  C   UNL     1       2.000  -2.683   0.000  1.00  0.00     0.012 C 
BRANCH   6  10
ATOM     10  C   UNL     1       4.732  -3.683   0.000  1.00  0.00     0.011 C 
ATOM     11  Cl  UNL     1       3.866  -5.183   0.000  1.00  0.00    -0.071 Cl
ATOM     12  C   UNL     1       4.732  -4.683   0.000  1.00  0.00     0.103 C 
ATOM     13  Cl  UNL     1       5.598  -5.183   0.000  1.00  0.00    -0.071 Cl
ENDBRANCH   6  10
ENDBRANCH   3   5
ENDBRANCH   2   3
ENDBRANCH   1   2
BRANCH   1  14
ATOM     14  C   UNL     1       5.098   0.683   0.000  1.00  0.00    -0.007 A 
ATOM     15  C   UNL     1       5.098   1.683   0.000  1.00  0.00     0.054 A 
ATOM     16  C   UNL     1       5.964   0.183   0.000  1.00  0.00     0.007 A 
ATOM     17  C   UNL     1       5.964   2.183   0.000  1.00  0.00     0.127 A 
ATOM     18  C   UNL     1       6.830   0.683   0.000  1.00  0.00     0.004 A 
ATOM     19  C   UNL     1       6.830   1.683   0.000  1.00  0.00     0.047 A 
BRANCH  17  20
ATOM     20  O   UNL     1       5.964   3.183   0.000  1.00  0.00    -0.457 OA
BRANCH  20  21
ATOM     21  C   UNL     1       6.830   3.683   0.000  1.00  0.00     0.127 A 
ATOM     22  C   UNL     1       6.830   4.683   0.000  1.00  0.00     0.047 A 
ATOM     23  C   UNL     1       7.696   3.183   0.000  1.00  0.00     0.047 A 
ATOM     24  C   UNL     1       7.696   5.183   0.000  1.00  0.00     0.004 A 
ATOM     25  C   UNL     1       8.562   3.683   0.000  1.00  0.00     0.004 A 
ATOM     26  C   UNL     1       8.562   4.683   0.000  1.00  0.00     0.000 A 
ENDBRANCH  20  21
ENDBRANCH  17  20
ENDBRANCH   1  14
TORSDOF 7
