REMARK  7 active torsions:
REMARK  status: ('A' for Active; 'I' for Inactive)
REMARK    1  A    between atoms: C4_4  and  C6_5 
REMARK    2  A    between atoms: C10_9  and  C12_10 
REMARK    3  A    between atoms: C12_10  and  O14_12 
REMARK    4  A    between atoms: O14_12  and  C15_13 
REMARK    5  A    between atoms: C15_13  and  C19_16 
REMARK    6  A    between atoms: C23_20  and  O24_21 
REMARK    7  A    between atoms: O24_21  and  C25_22 
ROOT
ATOM      1  C1  ZIN AC000       2.806   2.192  -0.038  0.00  0.00     0.090 C 
ATOM      2  C2  ZIN AC000       2.770   0.666  -0.157  0.00  0.00    -0.060 A 
ATOM      3  C3  ZIN AC000       1.736   0.105  -1.135  0.00  0.00     0.090 C 
ATOM      4  C4  ZIN AC000       4.096  -0.085  -0.022  0.00  0.00     0.030 A 
ATOM      5  C10 ZIN AC000       3.063  -0.147   1.105  0.00  0.00     0.000 A 
ENDROOT
BRANCH   5   6
ATOM      6  C12 ZIN AC000       3.366   0.614   2.370  0.00  0.00     0.490 C 
ATOM      7  O13 ZIN AC000       3.371   1.822   2.361  0.00  0.00    -0.490 OA
BRANCH   6   8
ATOM      8  O14 ZIN AC000       3.630  -0.051   3.506  0.00  0.00    -0.330 OA
BRANCH   8   9
ATOM      9  C15 ZIN AC000       3.913   0.748   4.686  0.00  0.00     0.380 C 
ATOM     10  C17 ZIN AC000       5.359   1.009   4.766  0.00  0.00     0.180 C 
ATOM     11  N18 ZIN AC000       6.476   1.211   4.827  0.00  0.00    -0.370 NA
BRANCH   9  12
ATOM     12  C19 ZIN AC000       3.469  -0.000   5.917  0.00  0.00    -0.070 A 
ATOM     13  C31 ZIN AC000       2.855   0.678   6.952  0.00  0.00    -0.040 A 
ATOM     14  C23 ZIN AC000       2.442  -0.012   8.083  0.00  0.00     0.130 A 
ATOM     15  C22 ZIN AC000       2.656  -1.380   8.175  0.00  0.00     0.010 A 
ATOM     16  C21 ZIN AC000       3.275  -2.052   7.139  0.00  0.00     0.060 A 
ATOM     17  C20 ZIN AC000       3.681  -1.363   6.011  0.00  0.00     0.030 A 
BRANCH  14  18
ATOM     18  O24 ZIN AC000       1.835   0.652   9.101  0.00  0.00    -0.250 OA
BRANCH  18  19
ATOM     19  C25 ZIN AC000       1.638   1.989   8.963  0.00  0.00     0.080 A 
ATOM     20  C30 ZIN AC000       2.605   2.883   9.401  0.00  0.00     0.000 A 
ATOM     21  C29 ZIN AC000       2.405   4.242   9.253  0.00  0.00     0.020 A 
ATOM     22  C28 ZIN AC000       1.237   4.712   8.681  0.00  0.00     0.020 A 
ATOM     23  C27 ZIN AC000       0.269   3.824   8.250  0.00  0.00     0.020 A 
ATOM     24  C26 ZIN AC000       0.467   2.464   8.389  0.00  0.00     0.010 A 
ENDBRANCH  18  19
ENDBRANCH  14  18
ENDBRANCH   9  12
ENDBRANCH   8   9
ENDBRANCH   6   8
ENDBRANCH   5   6
BRANCH   4  25
ATOM     25  C6  ZIN AC000       5.338   0.735   0.217  0.00  0.00     0.100 C 
ATOM     26  C7  ZIN AC000       6.330   0.688  -0.641  0.00  0.00    -0.130 C 
ATOM     27 Br8  ZIN AC000       6.201  -0.407  -2.177  0.00  0.00    -0.010 Br
ATOM     28 Br9  ZIN AC000       7.889   1.716  -0.341  0.00  0.00    -0.010 Br
ENDBRANCH   4  25
TORSDOF 7
