REMARK SMILES COP(=S)(OC)Oc1ccc([N+](=O)[O-])c(C)c1
REMARK SMILES IDX 7 1 3 2 4 3 2 4 1 5 5 6 6 7 8 8 17 9 9 10 15 11 10 12 11 13
REMARK SMILES IDX 16 14 12 15 14 16 13 17
REMARK H PARENT
REMARK Flexibility Score: inf
ROOT
ATOM      1  O   UNL     1       3.732  -1.250   0.000  1.00  0.00    -0.424 OA
ENDROOT
BRANCH   1   2
ATOM      2  P   UNL     1       4.598  -1.750   0.000  1.00  0.00     0.380 P 
ATOM      3  S   UNL     1       5.098  -0.884   0.000  1.00  0.00     0.006 S 
BRANCH   2   4
ATOM      4  O   UNL     1       5.464  -2.250   0.000  1.00  0.00    -0.303 OA
ATOM      5  C   UNL     1       5.464  -3.250   0.000  1.00  0.00     0.207 C 
ENDBRANCH   2   4
BRANCH   2   6
ATOM      6  O   UNL     1       4.098  -2.616   0.000  1.00  0.00    -0.303 OA
ATOM      7  C   UNL     1       3.098  -2.616   0.000  1.00  0.00     0.207 C 
ENDBRANCH   2   6
ENDBRANCH   1   2
BRANCH   1   8
ATOM      8  C   UNL     1       3.732  -0.250   0.000  1.00  0.00     0.129 A 
ATOM      9  C   UNL     1       2.866   0.250   0.000  1.00  0.00     0.057 A 
ATOM     10  C   UNL     1       4.598   0.250   0.000  1.00  0.00     0.054 A 
ATOM     11  C   UNL     1       2.866   1.250   0.000  1.00  0.00     0.030 A 
ATOM     12  C   UNL     1       4.598   1.250   0.000  1.00  0.00     0.090 A 
ATOM     13  C   UNL     1       3.732   1.750   0.000  1.00  0.00     0.272 A 
ATOM     14  C   UNL     1       2.000   1.750   0.000  1.00  0.00     0.052 C 
BRANCH  13  15
ATOM     15  N   UNL     1       3.732   2.750   0.000  1.00  0.00     0.062 N 
ATOM     16  O   UNL     1       4.598   3.250   0.000  1.00  0.00    -0.258 OA
ATOM     17  O   UNL     1       2.866   3.250   0.000  1.00  0.00    -0.258 OA
ENDBRANCH  13  15
ENDBRANCH   1   8
TORSDOF 5
