REMARK SMILES CCOC(=O)CC(SP(=S)(OC)OC)C(=O)OCC
REMARK SMILES IDX 6 1 7 2 8 3 9 4 10 5 11 6 12 7 13 8 14 9 15 10 16 11 17 12
REMARK SMILES IDX 18 13 19 14 4 15 5 16 3 17 2 18 1 19
REMARK H PARENT
REMARK Flexibility Score: inf
ROOT
ATOM      1  C   UNL     1       5.464   0.134   0.000  1.00  0.00     0.149 C 
ENDROOT
BRANCH   1   2
ATOM      2  C   UNL     1       5.464   1.134   0.000  1.00  0.00     0.177 C 
BRANCH   2   3
ATOM      3  S   UNL     1       4.598   1.634   0.000  1.00  0.00    -0.054 SA
BRANCH   3   4
ATOM      4  P   UNL     1       3.732   1.134   0.000  1.00  0.00     0.247 P 
ATOM      5  S   UNL     1       4.232   0.268   0.000  1.00  0.00    -0.026 S 
BRANCH   4   6
ATOM      6  O   UNL     1       2.866   0.634   0.000  1.00  0.00    -0.325 OA
ATOM      7  C   UNL     1       2.000   1.134   0.000  1.00  0.00     0.204 C 
ENDBRANCH   4   6
BRANCH   4   8
ATOM      8  O   UNL     1       3.232   2.000   0.000  1.00  0.00    -0.325 OA
ATOM      9  C   UNL     1       3.732   2.866   0.000  1.00  0.00     0.204 C 
ENDBRANCH   4   8
ENDBRANCH   3   4
ENDBRANCH   2   3
BRANCH   2  10
ATOM     10  C   UNL     1       6.330   1.634   0.000  1.00  0.00     0.320 C 
ATOM     11  O   UNL     1       6.330   2.634   0.000  1.00  0.00    -0.251 OA
BRANCH  10  12
ATOM     12  O   UNL     1       7.196   1.134   0.000  1.00  0.00    -0.465 OA
BRANCH  12  13
ATOM     13  C   UNL     1       8.062   1.634   0.000  1.00  0.00     0.229 C 
ATOM     14  C   UNL     1       8.928   1.134   0.000  1.00  0.00     0.049 C 
ENDBRANCH  12  13
ENDBRANCH  10  12
ENDBRANCH   2  10
ENDBRANCH   1   2
BRANCH   1  15
ATOM     15  C   UNL     1       6.330  -0.366   0.000  1.00  0.00     0.307 C 
ATOM     16  O   UNL     1       7.196   0.134   0.000  1.00  0.00    -0.252 OA
BRANCH  15  17
ATOM     17  O   UNL     1       6.330  -1.366   0.000  1.00  0.00    -0.466 OA
BRANCH  17  18
ATOM     18  C   UNL     1       7.196  -1.866   0.000  1.00  0.00     0.229 C 
ATOM     19  C   UNL     1       7.196  -2.866   0.000  1.00  0.00     0.049 C 
ENDBRANCH  17  18
ENDBRANCH  15  17
ENDBRANCH   1  15
TORSDOF 11
