REMARK  11 active torsions:
REMARK  status: ('A' for Active; 'I' for Inactive)
REMARK    1  A    between atoms: C2_2  and  O3_3 
REMARK    2  A    between atoms: O3_3  and  C4_4 
REMARK    3  A    between atoms: C4_4  and  C6_6 
REMARK    4  A    between atoms: C6_6  and  C7_7 
REMARK    5  A    between atoms: C7_7  and  S9_8 
REMARK    6  A    between atoms: C7_7  and  C16_15 
REMARK    7  A    between atoms: S9_8  and  P10_9 
REMARK    8  A    between atoms: P10_9  and  O12_11 
REMARK    9  A    between atoms: P10_9  and  O14_13 
REMARK   10  A    between atoms: C16_15  and  O18_17 
REMARK   11  A    between atoms: O18_17  and  C19_18 
ROOT
ATOM      1  C1  ZIN AC000      -0.997   1.554  -0.311  0.00  0.00     0.070 C 
ATOM      2  C2  ZIN AC000      -0.837   0.033  -0.250  0.00  0.00     0.200 C 
ENDROOT
BRANCH   2   3
ATOM      3  O3  ZIN AC000       0.026  -0.407  -1.331  0.00  0.00    -0.350 OA
BRANCH   3   4
ATOM      4  C4  ZIN AC000       0.270  -1.724  -1.418  0.00  0.00     0.470 C 
ATOM      5  O5  ZIN AC000      -0.222  -2.484  -0.619  0.00  0.00    -0.490 OA
BRANCH   4   6
ATOM      6  C6  ZIN AC000       1.157  -2.255  -2.515  0.00  0.00     0.190 C 
BRANCH   6   7
ATOM      7  C7  ZIN AC000       1.352  -3.761  -2.329  0.00  0.00     0.150 C 
BRANCH   7   8
ATOM      8  S9  ZIN AC000      -0.235  -4.609  -2.561  0.00  0.00    -0.610 SA
BRANCH   8   9
ATOM      9  P10 ZIN AC000       0.178  -6.582  -1.906  0.00  0.00     2.120 P 
ATOM     10  S11 ZIN AC000      -1.399  -7.575  -1.891  0.00  0.00    -1.090 SA
BRANCH   9  11
ATOM     11  O12 ZIN AC000       1.236  -7.270  -2.906  0.00  0.00    -0.640 OA
ATOM     12  C13 ZIN AC000       0.882  -7.741  -4.208  0.00  0.00     0.340 C 
ENDBRANCH   9  11
BRANCH   9  13
ATOM     13  O14 ZIN AC000       0.797  -6.535  -0.420  0.00  0.00    -0.640 OA
ATOM     14  C15 ZIN AC000       0.252  -5.728   0.625  0.00  0.00     0.340 C 
ENDBRANCH   9  13
ENDBRANCH   8   9
ENDBRANCH   7   8
BRANCH   7  15
ATOM     15  C16 ZIN AC000       2.345  -4.268  -3.343  0.00  0.00     0.450 C 
ATOM     16  O17 ZIN AC000       2.442  -3.724  -4.417  0.00  0.00    -0.460 OA
BRANCH  15  17
ATOM     17  O18 ZIN AC000       3.122  -5.323  -3.051  0.00  0.00    -0.350 OA
BRANCH  17  18
ATOM     18  C19 ZIN AC000       4.056  -5.757  -4.075  0.00  0.00     0.230 C 
ATOM     19  C20 ZIN AC000       4.848  -6.962  -3.565  0.00  0.00     0.070 C 
ENDBRANCH  17  18
ENDBRANCH  15  17
ENDBRANCH   7  15
ENDBRANCH   6   7
ENDBRANCH   4   6
ENDBRANCH   3   4
ENDBRANCH   2   3
TORSDOF 11
