REMARK  Name = 34526
REMARK  11 active torsions:
REMARK  status: ('A' for Active; 'I' for Inactive)
REMARK    1  A    between atoms: P_2  and  O_3
REMARK    2  A    between atoms: P_2  and  O_4
REMARK    3  A    between atoms: P_2  and  O_5
REMARK    4  A    between atoms: O_3  and  C_15
REMARK    5  A    between atoms: O_4  and  C_18
REMARK    6  A    between atoms: O_5  and  C_19
REMARK    7  A    between atoms: N_6  and  C_9
REMARK    8  A    between atoms: N_6  and  C_10
REMARK    9  A    between atoms: C_9  and  C_12
REMARK   10  A    between atoms: C_10  and  C_13
REMARK   11  A    between atoms: C_14  and  C_17
REMARK                            x       y       z     vdW  Elec       q    Type
REMARK                         _______ _______ _______ _____ _____    ______ ____
ROOT
ATOM      1  N   UNL     1       4.615   5.684  -0.956  0.00  0.00    +0.000 N 
ATOM      2  N   UNL     1       2.906   4.702  -2.259  0.00  0.00    +0.000 NA
ATOM      3  N   UNL     1       3.768   3.541  -0.423  0.00  0.00    +0.000 NA
ATOM      4  C   UNL     1       3.766   4.620  -1.215  0.00  0.00    +0.000 A 
ATOM      5  C   UNL     1       2.060   3.681  -2.501  0.00  0.00    +0.000 A 
ATOM      6  C   UNL     1       2.914   2.546  -0.679  0.00  0.00    +0.000 A 
ATOM      7  C   UNL     1       2.019   2.556  -1.714  0.00  0.00    +0.000 A 
ATOM      8  C   UNL     1       1.134   3.845  -3.668  0.00  0.00    +0.000 C 
ENDROOT
BRANCH   1   9
ATOM      9  C   UNL     1       5.454   5.718   0.241  0.00  0.00    +0.000 C 
ATOM     10  C   UNL     1       6.419   4.551   0.385  0.00  0.00    +0.000 C 
ENDBRANCH   1   9
BRANCH   1  11
ATOM     11  C   UNL     1       4.183   6.983  -1.487  0.00  0.00    +0.000 C 
ATOM     12  C   UNL     1       2.988   7.569  -0.738  0.00  0.00    +0.000 C 
ENDBRANCH   1  11
BRANCH   6  13
ATOM     13  O   UNL     1       2.822   1.527   0.241  0.00  0.00    +0.000 OA
BRANCH  13  15
ATOM     14  S   UNL     1       5.702   0.535   0.412  0.00  0.00    +0.000 S 
ATOM     15  P   UNL     1       4.049   1.150   1.226  0.00  0.00    +0.000 P 
BRANCH  15  16
ATOM     16  O   UNL     1       3.430   0.004   2.193  0.00  0.00    +0.000 OA
ATOM     17  C   UNL     1       2.206  -0.641   1.957  0.00  0.00    +0.000 C 
ENDBRANCH  15  16
BRANCH  15  18
ATOM     18  O   UNL     1       4.175   2.318   2.338  0.00  0.00    +0.000 OA
ATOM     19  C   UNL     1       3.338   3.447   2.402  0.00  0.00    +0.000 C 
ENDBRANCH  15  18
ENDBRANCH  13  15
ENDBRANCH   6  13
TORSDOF 6
