REMARK SMILES CC1(C)C(C=C(Cl)Cl)C1C(=O)OCc1c(F)c(F)cc(F)c1F
REMARK SMILES IDX 11 1 10 2 9 3 4 4 2 5 1 6 3 7 5 8 7 9 6 10 8 11 12 12 13 13
REMARK SMILES IDX 14 14 22 15 15 16 23 17 20 18 16 19 17 20 21 21 19 22 18 23
REMARK H PARENT
REMARK Flexibility Score: inf
ROOT
ATOM      1  O   UNL     1       1.252   0.683  -2.140  1.00  0.00    -0.252 OA
ATOM      2  C   UNL     1       1.003   0.513  -0.955  1.00  0.00     0.310 C 
ENDROOT
BRANCH   2   3
ATOM      3  C   UNL     1       2.080   0.464   0.067  1.00  0.00     0.113 C 
ATOM      4  C   UNL     1       3.457   0.081  -0.371  1.00  0.00     0.035 C 
ATOM      5  C   UNL     1       2.654  -0.850   0.488  1.00  0.00    -0.014 C 
ATOM      6  C   UNL     1       2.154  -2.106  -0.145  1.00  0.00     0.012 C 
ATOM      7  C   UNL     1       2.999  -1.008   1.932  1.00  0.00     0.012 C 
BRANCH   4   8
ATOM      8  C   UNL     1       4.586   0.810   0.188  1.00  0.00     0.011 C 
ATOM      9  Cl  UNL     1       6.365  -1.168  -0.240  1.00  0.00    -0.071 Cl
ATOM     10  C   UNL     1       5.857   0.392   0.299  1.00  0.00     0.103 C 
ATOM     11  Cl  UNL     1       7.057   1.420   1.001  1.00  0.00    -0.071 Cl
ENDBRANCH   4   8
ENDBRANCH   2   3
BRANCH   2  12
ATOM     12  O   UNL     1      -0.232   0.347  -0.398  1.00  0.00    -0.460 OA
BRANCH  12  13
ATOM     13  C   UNL     1      -1.328   0.379  -1.304  1.00  0.00     0.275 C 
BRANCH  13  14
ATOM     14  C   UNL     1      -2.600   0.186  -0.550  1.00  0.00     0.067 A 
ATOM     15  C   UNL     1      -3.103  -1.100  -0.349  1.00  0.00     0.168 A 
ATOM     16  C   UNL     1      -3.286   1.290  -0.044  1.00  0.00     0.168 A 
ATOM     17  F   UNL     1      -2.451  -2.167  -0.831  1.00  0.00    -0.203 F 
ATOM     18  C   UNL     1      -4.292  -1.281   0.358  1.00  0.00     0.162 A 
ATOM     19  F   UNL     1      -2.810   2.529  -0.231  1.00  0.00    -0.203 F 
ATOM     20  C   UNL     1      -4.475   1.109   0.663  1.00  0.00     0.162 A 
ATOM     21  F   UNL     1      -4.776  -2.515   0.550  1.00  0.00    -0.204 F 
ATOM     22  C   UNL     1      -4.978  -0.177   0.863  1.00  0.00     0.084 A 
ATOM     23  F   UNL     1      -5.134   2.169   1.147  1.00  0.00    -0.204 F 
ENDBRANCH  13  14
ENDBRANCH  12  13
ENDBRANCH   2  12
TORSDOF 5
