REMARK SMILES CN/C(=N\[N+](=O)[O-])NCc1cnc(Cl)s1
REMARK SMILES IDX 8 1 2 2 4 3 3 4 1 5 9 8 10 9 14 10 13 11 15 12 12 13 11 14
REMARK SMILES IDX 5 15 7 16 6 17
REMARK H PARENT 8 6 2 7
REMARK Flexibility Score: inf
ROOT
ATOM      1  N   UNL     1       4.853   0.804   0.000  1.00  0.00    -0.346 N 
ATOM      2  N   UNL     1       3.159   1.164   0.000  1.00  0.00    -0.354 N 
ATOM      3  N   UNL     1       3.694  -0.483   0.000  1.00  0.00     0.100 NA
ATOM      4  C   UNL     1       3.902   0.495   0.000  1.00  0.00     0.268 C 
ATOM      5  C   UNL     1       2.208   0.855   0.000  1.00  0.00     0.143 C 
ATOM      6  H   UNL     1       4.982   1.410   0.000  1.00  0.00     0.164 HD
ATOM      7  H   UNL     1       3.288   1.770   0.000  1.00  0.00     0.163 HD
ENDROOT
BRANCH   1   8
ATOM      8  C   UNL     1       5.596   0.135   0.000  1.00  0.00     0.164 C 
BRANCH   8   9
ATOM      9  C   UNL     1       6.547   0.444   0.000  1.00  0.00     0.045 A 
ATOM     10  Cl  UNL     1       9.117   0.135   0.000  1.00  0.00    -0.051 Cl
ATOM     11  C   UNL     1       8.165   0.444   0.000  1.00  0.00     0.183 A 
ATOM     12  S   UNL     1       7.356  -0.144   0.000  1.00  0.00    -0.106 S 
ATOM     13  N   UNL     1       7.856   1.395   0.000  1.00  0.00    -0.233 NA
ATOM     14  C   UNL     1       6.856   1.395   0.000  1.00  0.00     0.130 A 
ENDBRANCH   8   9
ENDBRANCH   1   8
BRANCH   3  15
ATOM     15  N   UNL     1       2.743  -0.792   0.000  1.00  0.00     0.194 N 
ATOM     16  O   UNL     1       2.535  -1.770   0.000  1.00  0.00    -0.233 OA
ATOM     17  O   UNL     1       2.000  -0.123   0.000  1.00  0.00    -0.233 OA
ENDBRANCH   3  15
TORSDOF 3
