REMARK SMILES [2H]c1cc(C([2H])(c2c([2H])c([2H])c(Cl)c([2H])c2[2H])C(Cl)(Cl)Cl)c([2H])c([2H])c1Cl
REMARK SMILES IDX 5 1 18 2 19 3 20 4 21 5 7 6 8 7 16 8 10 9 14 10 12 11 13 12
REMARK SMILES IDX 4 13 22 14 3 15 24 16 2 17 26 18 27 19
REMARK H PARENT
REMARK Flexibility Score: inf
ROOT
ATOM      1  C   UNL     1       3.732   0.690   0.000  1.00  0.00     0.101 C 
ENDROOT
BRANCH   1   2
ATOM      2  C   UNL     1       2.866   1.190   0.000  1.00  0.00     0.201 C 
ATOM      3  Cl  UNL     1       2.000   1.690   0.000  1.00  0.00    -0.083 Cl
ATOM      4  Cl  UNL     1       3.366   2.056   0.000  1.00  0.00    -0.083 Cl
ATOM      5  Cl  UNL     1       2.366   0.324   0.000  1.00  0.00    -0.083 Cl
ENDBRANCH   1   2
BRANCH   1   6
ATOM      6  C   UNL     1       3.732  -0.310   0.000  1.00  0.00    -0.036 A 
ATOM      7  C   UNL     1       4.598  -0.810   0.000  1.00  0.00     0.006 A 
ATOM      8  C   UNL     1       2.866  -0.810   0.000  1.00  0.00     0.006 A 
ATOM      9  C   UNL     1       4.598  -1.810   0.000  1.00  0.00     0.021 A 
ATOM     10  C   UNL     1       2.866  -1.810   0.000  1.00  0.00     0.021 A 
ATOM     11  C   UNL     1       3.732  -2.310   0.000  1.00  0.00     0.041 A 
ATOM     12  Cl  UNL     1       3.732  -3.310   0.000  1.00  0.00    -0.084 Cl
ENDBRANCH   1   6
BRANCH   1  13
ATOM     13  C   UNL     1       4.598   1.190   0.000  1.00  0.00    -0.036 A 
ATOM     14  C   UNL     1       5.464   0.690   0.000  1.00  0.00     0.006 A 
ATOM     15  C   UNL     1       4.598   2.190   0.000  1.00  0.00     0.006 A 
ATOM     16  C   UNL     1       6.330   1.190   0.000  1.00  0.00     0.021 A 
ATOM     17  C   UNL     1       5.464   2.690   0.000  1.00  0.00     0.021 A 
ATOM     18  C   UNL     1       6.330   2.190   0.000  1.00  0.00     0.041 A 
ATOM     19  Cl  UNL     1       7.196   2.690   0.000  1.00  0.00    -0.084 Cl
ENDBRANCH   1  13
TORSDOF 3
