REMARK  7 active torsions:
REMARK  status: ('A' for Active; 'I' for Inactive)
REMARK    1  A    between atoms: C4_4  and  C6_5 
REMARK    2  A    between atoms: C10_9  and  C12_10 
REMARK    3  A    between atoms: C12_10  and  O14_12 
REMARK    4  A    between atoms: O14_12  and  C15_13 
REMARK    5  A    between atoms: C15_13  and  C16_14 
REMARK    6  A    between atoms: C20_18  and  O21_19 
REMARK    7  A    between atoms: O21_19  and  C22_20 
ROOT
ATOM      1  C16 <0> d           3.000  -1.270   4.998  0.00  0.00    -0.060 A 
ATOM      2  C17 <0> d           2.294  -1.574   6.147  0.00  0.00     0.000 A 
ATOM      3  C18 <0> d           2.966  -1.938   7.299  0.00  0.00     0.060 A 
ATOM      4  C19 <0> d           4.346  -1.999   7.304  0.00  0.00     0.010 A 
ATOM      5  C20 <0> d           5.057  -1.695   6.152  0.00  0.00     0.120 A 
ATOM      6  C28 <0> d           4.380  -1.335   4.996  0.00  0.00    -0.040 A 
ENDROOT
BRANCH   1   7
ATOM      7  C15 <0> d           2.264  -0.874   3.744  0.00  0.00     0.270 C 
BRANCH   7   8
ATOM      8  O14 <0> d           1.965  -2.061   2.963  0.00  0.00    -0.340 OA
BRANCH   8   9
ATOM      9  C12 <0> d           1.306  -1.880   1.807  0.00  0.00     0.490 C 
ATOM     10  O13 <0> d           0.990  -0.767   1.460  0.00  0.00    -0.500 OA
BRANCH   9  11
ATOM     11  C10 <0> d           0.962  -3.066   0.943  0.00  0.00    -0.010 A 
ATOM     12  C2  <0> d           0.210  -2.795  -0.362  0.00  0.00    -0.060 A 
ATOM     13  C1  <0> d          -0.134  -1.340  -0.690  0.00  0.00     0.090 C 
ATOM     14  C3  <0> d          -0.817  -3.834  -0.815  0.00  0.00     0.080 C 
ATOM     15  C4  <0> d           1.686  -3.197  -0.399  0.00  0.00     0.040 A 
BRANCH  15  16
ATOM     16  C6  <0> d           2.689  -2.131  -0.755  0.00  0.00     0.060 C 
ATOM     17  C7  <0> d           3.460  -2.280  -1.808  0.00  0.00    -0.030 C 
ATOM     18 Cl8  <0> d           3.323  -3.705  -2.789  0.00  0.00    -0.030 Cl
ATOM     19 Cl9  <0> d           4.616  -1.051  -2.219  0.00  0.00    -0.030 Cl
ENDBRANCH  15  16
ENDBRANCH   9  11
ENDBRANCH   8   9
ENDBRANCH   7   8
ENDBRANCH   1   7
BRANCH   5  20
ATOM     20  O21 <0> d           6.415  -1.755   6.155  0.00  0.00    -0.260 OA
BRANCH  20  21
ATOM     21  C22 <0> d           7.070  -1.440   5.006  0.00  0.00     0.080 A 
ATOM     22  C27 <0> d           7.360  -2.429   4.078  0.00  0.00     0.010 A 
ATOM     23  C26 <0> d           8.019  -2.105   2.908  0.00  0.00     0.020 A 
ATOM     24  C25 <0> d           8.402  -0.798   2.668  0.00  0.00     0.020 A 
ATOM     25  C24 <0> d           8.120   0.189   3.595  0.00  0.00     0.020 A 
ATOM     26  C23 <0> d           7.454  -0.129   4.763  0.00  0.00     0.000 A 
ENDBRANCH  20  21
ENDBRANCH   5  20
TORSDOF 7
