REMARK  Name = 13369988
REMARK  11 active torsions:
REMARK  status: ('A' for Active; 'I' for Inactive)
REMARK    1  A    between atoms: P_1  and  O_2
REMARK    2  A    between atoms: P_1  and  O_3
REMARK    3  A    between atoms: P_1  and  O_4
REMARK    4  A    between atoms: O_2  and  C_15
REMARK    5  A    between atoms: O_3  and  C_18
REMARK    6  A    between atoms: O_4  and  C_19
REMARK    7  A    between atoms: N_6  and  C_9
REMARK    8  A    between atoms: N_6  and  C_10
REMARK    9  A    between atoms: C_9  and  C_12
REMARK   10  A    between atoms: C_10  and  C_13
REMARK   11  A    between atoms: C_14  and  C_17
REMARK                            x       y       z     vdW  Elec       q    Type
REMARK                         _______ _______ _______ _____ _____    ______ ____
ROOT
ATOM      1  N   UNL     1       8.062  -0.750   0.000  0.00  0.00    +0.000 N 
ATOM      2  N   UNL     1       7.196   0.750   0.000  0.00  0.00    +0.000 NA
ATOM      3  N   UNL     1       6.330  -0.750   0.000  0.00  0.00    +0.000 NA
ATOM      4  C   UNL     1       7.196  -0.250   0.000  0.00  0.00    +0.000 A 
ATOM      5  C   UNL     1       6.330   1.250   0.000  0.00  0.00    +0.000 A 
ATOM      6  C   UNL     1       5.464  -0.250   0.000  0.00  0.00    +0.000 A 
ATOM      7  C   UNL     1       5.464   0.750   0.000  0.00  0.00    +0.000 A 
ATOM      8  C   UNL     1       6.330   2.250   0.000  0.00  0.00    +0.000 C 
ENDROOT
BRANCH   1   9
ATOM      9  C   UNL     1       8.928  -0.250   0.000  0.00  0.00    +0.000 C 
ATOM     10  C   UNL     1       9.794  -0.750   0.000  0.00  0.00    +0.000 C 
ENDBRANCH   1   9
BRANCH   1  11
ATOM     11  C   UNL     1       8.062  -1.750   0.000  0.00  0.00    +0.000 C 
ATOM     12  C   UNL     1       8.928  -2.250   0.000  0.00  0.00    +0.000 C 
ENDBRANCH   1  11
BRANCH   6  13
ATOM     13  O   UNL     1       4.598  -0.750   0.000  0.00  0.00    +0.000 OA
BRANCH  13  14
ATOM     14  P   UNL     1       3.732  -0.250   0.000  0.00  0.00    +0.000 P 
ATOM     15  O   UNL     1       4.232   0.616   0.000  0.00  0.00    +0.000 OA
BRANCH  14  16
ATOM     16  O   UNL     1       2.866   0.250   0.000  0.00  0.00    +0.000 OA
ATOM     17  C   UNL     1       2.000  -0.250   0.000  0.00  0.00    +0.000 C 
ENDBRANCH  14  16
BRANCH  14  18
ATOM     18  O   UNL     1       3.232  -1.116   0.000  0.00  0.00    +0.000 OA
ATOM     19  C   UNL     1       3.732  -1.982   0.000  0.00  0.00    +0.000 C 
ENDBRANCH  14  18
ENDBRANCH  13  14
ENDBRANCH   6  13
TORSDOF 6
