REMARK SMILES CCN(CC)c1nc(C)cc(OP(=S)(OC)OC)n1
REMARK SMILES IDX 7 1 19 2 6 3 8 4 11 5 10 6 9 7 12 8 13 9 14 10 15 11 16 12
REMARK SMILES IDX 17 13 18 14 3 15 2 16 1 17 4 18 5 19
REMARK H PARENT
REMARK Flexibility Score: inf
ROOT
ATOM      1  N   UNL     1       7.196   0.750   0.000  1.00  0.00    -0.218 NA
ATOM      2  N   UNL     1       6.330  -0.750   0.000  1.00  0.00    -0.177 NA
ATOM      3  C   UNL     1       7.196  -0.250   0.000  1.00  0.00     0.228 A 
ATOM      4  C   UNL     1       6.330   1.250   0.000  1.00  0.00     0.047 A 
ATOM      5  C   UNL     1       5.464  -0.250   0.000  1.00  0.00     0.226 A 
ATOM      6  C   UNL     1       5.464   0.750   0.000  1.00  0.00     0.092 A 
ATOM      7  C   UNL     1       6.330   2.250   0.000  1.00  0.00     0.067 C 
ENDROOT
BRANCH   5   8
ATOM      8  O   UNL     1       4.598  -0.750   0.000  1.00  0.00    -0.405 OA
BRANCH   8   9
ATOM      9  P   UNL     1       3.732  -0.250   0.000  1.00  0.00     0.381 P 
ATOM     10  S   UNL     1       4.232   0.616   0.000  1.00  0.00     0.006 S 
BRANCH   9  11
ATOM     11  O   UNL     1       2.866   0.250   0.000  1.00  0.00    -0.303 OA
ATOM     12  C   UNL     1       2.000  -0.250   0.000  1.00  0.00     0.207 C 
ENDBRANCH   9  11
BRANCH   9  13
ATOM     13  O   UNL     1       3.232  -1.116   0.000  1.00  0.00    -0.303 OA
ATOM     14  C   UNL     1       3.732  -1.982   0.000  1.00  0.00     0.207 C 
ENDBRANCH   9  13
ENDBRANCH   8   9
ENDBRANCH   5   8
BRANCH   3  15
ATOM     15  N   UNL     1       8.062  -0.750   0.000  1.00  0.00    -0.341 N 
BRANCH  15  16
ATOM     16  C   UNL     1       8.928  -0.250   0.000  1.00  0.00     0.116 C 
ATOM     17  C   UNL     1       9.794  -0.750   0.000  1.00  0.00     0.027 C 
ENDBRANCH  15  16
BRANCH  15  18
ATOM     18  C   UNL     1       8.062  -1.750   0.000  1.00  0.00     0.116 C 
ATOM     19  C   UNL     1       8.928  -2.250   0.000  1.00  0.00     0.027 C 
ENDBRANCH  15  18
ENDBRANCH   3  15
TORSDOF 7
