REMARK SMILES COP(=S)(OC)Oc1ccc(Sc2ccc(OP(=S)(OC)OC)cc2)cc1
REMARK SMILES IDX 12 1 11 2 10 3 26 4 9 5 27 6 8 7 7 8 3 9 4 10 2 11 1 12 5 13
REMARK SMILES IDX 6 14 13 15 14 16 25 17 15 18 24 19 16 20 17 21 18 22 19 23
REMARK SMILES IDX 20 24 21 25 22 26 23 27
REMARK H PARENT
REMARK Flexibility Score: inf
ROOT
ATOM      1  S   UNL     1       6.964  -0.750   0.000  1.00  0.00    -0.090 SA
ENDROOT
BRANCH   1   2
ATOM      2  C   UNL     1       6.964   0.250   0.000  1.00  0.00     0.012 A 
ATOM      3  C   UNL     1       7.830   0.750   0.000  1.00  0.00     0.019 A 
ATOM      4  C   UNL     1       6.098   0.750   0.000  1.00  0.00     0.019 A 
ATOM      5  C   UNL     1       7.830   1.750   0.000  1.00  0.00     0.048 A 
ATOM      6  C   UNL     1       6.098   1.750   0.000  1.00  0.00     0.048 A 
ATOM      7  C   UNL     1       6.964   2.250   0.000  1.00  0.00     0.129 A 
BRANCH   7   8
ATOM      8  O   UNL     1       6.964   3.250   0.000  1.00  0.00    -0.424 OA
BRANCH   8   9
ATOM      9  P   UNL     1       7.830   3.750   0.000  1.00  0.00     0.380 P 
ATOM     10  S   UNL     1       8.330   2.884   0.000  1.00  0.00     0.006 S 
BRANCH   9  11
ATOM     11  O   UNL     1       8.696   4.250   0.000  1.00  0.00    -0.303 OA
ATOM     12  C   UNL     1       8.696   5.250   0.000  1.00  0.00     0.207 C 
ENDBRANCH   9  11
BRANCH   9  13
ATOM     13  O   UNL     1       7.330   4.616   0.000  1.00  0.00    -0.303 OA
ATOM     14  C   UNL     1       6.330   4.616   0.000  1.00  0.00     0.207 C 
ENDBRANCH   9  13
ENDBRANCH   8   9
ENDBRANCH   7   8
ENDBRANCH   1   2
BRANCH   1  15
ATOM     15  C   UNL     1       6.098  -1.250   0.000  1.00  0.00     0.012 A 
ATOM     16  C   UNL     1       6.098  -2.250   0.000  1.00  0.00     0.019 A 
ATOM     17  C   UNL     1       5.232  -0.750   0.000  1.00  0.00     0.019 A 
ATOM     18  C   UNL     1       5.232  -2.750   0.000  1.00  0.00     0.048 A 
ATOM     19  C   UNL     1       4.366  -1.250   0.000  1.00  0.00     0.048 A 
ATOM     20  C   UNL     1       4.366  -2.250   0.000  1.00  0.00     0.129 A 
BRANCH  20  21
ATOM     21  O   UNL     1       3.500  -2.750   0.000  1.00  0.00    -0.424 OA
BRANCH  21  22
ATOM     22  P   UNL     1       3.500  -3.750   0.000  1.00  0.00     0.380 P 
ATOM     23  S   UNL     1       4.500  -3.750   0.000  1.00  0.00     0.006 S 
BRANCH  22  24
ATOM     24  O   UNL     1       3.500  -4.750   0.000  1.00  0.00    -0.303 OA
ATOM     25  C   UNL     1       2.634  -5.250   0.000  1.00  0.00     0.207 C 
ENDBRANCH  22  24
BRANCH  22  26
ATOM     26  O   UNL     1       2.500  -3.750   0.000  1.00  0.00    -0.303 OA
ATOM     27  C   UNL     1       2.000  -2.884   0.000  1.00  0.00     0.207 C 
ENDBRANCH  22  26
ENDBRANCH  21  22
ENDBRANCH  20  21
ENDBRANCH   1  15
TORSDOF 10
